OPT_V9/Results/My_campus_w_initial_sub_3_active_27_03_13_05/powerflow_results_t4.txt
Pandapower Network Debug Info
==================================================

BUS:
       vm_pu  va_degree          p_mw    q_mvar
0   0.955501  -1.986093  8.823650e-02 -0.002225
1   0.957335  -3.083603  5.637702e-02 -0.015843
2   1.059354  -2.612577  1.265054e-02 -0.059748
3   0.954014  -3.903730  1.130041e-01  0.005447
4   1.005036   0.914937 -9.393921e-03 -0.002670
5   1.106759  -6.414230 -2.462942e-02 -0.164970
6   0.962676   1.681441 -2.887176e-03  0.025566
7   0.963613   1.218202 -2.301701e-03  0.048286
8   0.965954  -0.868702  2.180517e-02  0.002093
9   0.997909   0.023503  2.122138e-03  1.011691
10  0.998452   0.009433 -8.641741e-08  0.000826
11  0.997312   0.013474  3.861651e-01  1.011802
12  0.993248   0.155693  2.267720e-01  1.004832
13  0.993028   0.184665 -1.518511e-01  1.009887
14  0.993130   0.166942  6.683534e-03  1.013300
15  0.998452   0.009407  0.000000e+00  0.000000
16  0.998449   0.009376  0.000000e+00  0.000000
17  0.999996   0.000754  0.000000e+00  0.000000
18  0.999996   0.000755  0.000000e+00  0.000000
19  0.993845   0.148544  0.000000e+00  0.000000
20  0.993845   0.148501  0.000000e+00  0.000000
21  0.999995   0.000812  0.000000e+00  0.000000
22  0.999995   0.000813  0.000000e+00  0.000000
23  1.000000   0.000000 -7.696654e-01 -4.957508
24  0.999998   0.000710  0.000000e+00  0.000000
--------------------------------------------------

LINE:
       p_from_mw  q_from_mvar       p_to_mw  q_to_mvar         pl_mw       ql_mvar  i_from_ka   i_to_ka      i_ka  vm_from_pu  va_from_degree  vm_to_pu  va_to_degree  loading_percent
0   6.743248e-01     1.975557 -6.729830e-01  -1.972606  1.341740e-03  2.951519e-03   0.080347  0.080347  0.080347    0.999998        0.000710  0.998452      0.009407        15.159812
1   1.000069e-05     0.001000 -9.999894e-06  -0.001000  7.925289e-10  1.743381e-09   0.000038  0.000038  0.000038    0.999998        0.000710  0.999996      0.000754         0.007262
2   9.524780e-02     2.975951 -8.703016e-02  -2.957874  8.217644e-03  1.807692e-02   0.114603  0.114603  0.114603    0.999998        0.000710  0.993845      0.148544        21.623262
3   1.000173e-05     0.001000 -9.999917e-06  -0.001000  1.814965e-09  2.656047e-09   0.000038  0.000038  0.000038    0.999998        0.000710  0.999995      0.000812         0.011321
4   2.372334e-03     1.012241 -2.122138e-03  -1.011691  2.501963e-04  5.503740e-04   0.039022  0.039022  0.039022    0.998452        0.009407  0.997909      0.023503         7.362579
5  -8.604418e-08     0.000826  8.641751e-08  -0.000826  3.733347e-10  5.463435e-10   0.000032  0.000032  0.000032    0.998452        0.009407  0.998452      0.009433         0.009361
6   3.866786e-01     1.012932 -3.861651e-01  -1.011802  5.134846e-04  1.129547e-03   0.041797  0.041797  0.041797    0.998452        0.009407  0.997312      0.013474         7.886163
7   2.270338e-01     1.005408 -2.267720e-01  -1.004832  2.618256e-04  5.759559e-04   0.039918  0.039918  0.039918    0.993845        0.148544  0.993248      0.155693         7.531745
8  -1.513388e-01     1.010813  1.518511e-01  -1.009887  5.123604e-04  9.260092e-04   0.039583  0.039583  0.039583    0.993845        0.148544  0.993028      0.184665         8.605103
9   7.013958e-03     1.014027 -6.683534e-03  -1.013300  3.304243e-04  7.268571e-04   0.039273  0.039273  0.039273    0.993845        0.148544  0.993130      0.166942         7.409916
10  9.222764e-02     0.000887 -8.823650e-02   0.002225  3.991137e-03  3.111955e-03   0.133332  0.133332  0.133332    0.998449        0.009376  0.955501     -1.986093        57.970445
11  5.960411e-02    -0.013327 -5.637702e-02   0.015843  3.227092e-03  2.516216e-03   0.088292  0.088292  0.088292    0.998449        0.009376  0.957335     -3.083603        38.387889
12  1.448683e-02    -0.055708 -1.265054e-02   0.059748  1.836288e-03  4.039410e-03   0.083212  0.083212  0.083212    0.998449        0.009376  1.059354     -2.612577        15.700304
13  1.176028e-01     0.013758 -1.130041e-01  -0.005447  4.598693e-03  8.311400e-03   0.171168  0.171168  0.171168    0.998449        0.009376  0.954014     -3.903730        37.210447
14 -9.323811e-03    -0.002516  9.393921e-03   0.002670  7.011060e-05  1.542271e-04   0.014025  0.014025  0.014025    0.993845        0.148501  1.005036      0.914937         2.646315
15 -5.040704e-03    -0.149697  2.462942e-02   0.164970  1.958871e-02  1.527364e-02   0.217530  0.217530  0.217530    0.993845        0.148501  1.106759     -6.414230        94.578308
16 -2.273499e-03     0.026465  2.887176e-03  -0.025566  6.136770e-04  8.980639e-04   0.038576  0.038576  0.038576    0.993845        0.148501  0.962676      1.681441        11.345992
17 -1.443782e-03     0.049837  2.301701e-03  -0.048286  8.579197e-04  1.550552e-03   0.072409  0.072409  0.072409    0.993845        0.148501  0.963613      1.218202        15.741026
18  2.239302e-02     0.002551 -2.180517e-02  -0.002093  5.878542e-04  4.583596e-04   0.032732  0.032732  0.032732    0.993845        0.148501  0.965954     -0.868702        14.231330
--------------------------------------------------

TRAFO:
    p_hv_mw  q_hv_mvar       p_lv_mw     q_lv_mvar     pl_mw   ql_mvar   i_hv_ka       i_lv_ka  vm_hv_pu  va_hv_degree  vm_lv_pu  va_lv_degree  loading_percent
0  0.283932  -0.053393 -2.839214e-01  5.438945e-02  0.000011  0.000997  0.011137  4.179048e-01  0.998452      0.009407  0.998449      0.009376         2.895329
1  0.000010   0.001000 -1.455186e-11 -1.916314e-16  0.000010  0.001000  0.000038  2.100388e-11  0.999996      0.000754  0.999996      0.000755         0.010000
2  0.004321  -0.072373 -4.311226e-03  7.336080e-02  0.000010  0.000988  0.002808  1.067268e-01  0.993845      0.148544  0.993845      0.148501         0.739425
3  0.000010   0.001000 -3.149049e-21  2.220436e-16  0.000010  0.001000  0.000038  3.204938e-16  0.999995      0.000812  0.999995      0.000813         0.010000
4  0.769665   4.957508 -7.695926e-01 -4.953509e+00  0.000073  0.004000  0.041379  1.929483e-01  1.000000      0.000000  0.999998      0.000710        12.542247
--------------------------------------------------
